<?xml version='1.0' encoding='utf-8'?>
<routes>
  <route id="0" town="ucla_v2" role="ego">
    <waypoint pitch="360.000000" roll="0.000000" x="62.213492" y="-173.023222" yaw="0.522213" z="2.017104" />
    <waypoint pitch="360.000000" roll="0.000000" x="64.577218" y="-173.001678" yaw="0.231277" z="2.242394" />
    <waypoint pitch="360.000000" roll="0.000000" x="66.769395" y="-172.992829" yaw="-0.938513" z="2.388278" />
    <waypoint pitch="360.000000" roll="0.000000" x="69.192563" y="-173.032524" yaw="2.233457" z="2.607713" />
    <waypoint pitch="360.000000" roll="0.000000" x="71.474185" y="-172.943539" yaw="0.821363" z="2.867989" />
    <waypoint pitch="360.000000" roll="0.000000" x="73.813340" y="-172.910004" yaw="0.998900" z="3.156072" />
    <waypoint pitch="360.000000" roll="0.000000" x="76.037739" y="-172.871219" yaw="1.387620" z="3.334122" />
    <waypoint pitch="360.000000" roll="0.000000" x="78.481890" y="-172.812014" yaw="4.095203" z="3.636169" />
    <waypoint pitch="360.000000" roll="0.000000" x="80.591456" y="-172.660976" yaw="-0.445375" z="3.887415" />
    <waypoint pitch="360.000000" roll="0.000000" x="83.020415" y="-172.679857" yaw="-0.445375" z="4.192482" />
    </route>
  </routes>
